[General]
network = demo.simulations.Comm
sim-time-limit = 100s
record-eventlog = false

# Ensure all signals are recorded as vectors
**.vector-recording = true
